@<TRIPOS>MOLECULE
Quinoline
10 11 0 0 0
SMALL
GASTEIGER

@<TRIPOS>ATOM
      1 C1           -2.3728     0.7795     0.2161 C        1    MOL      0.0000
      2 C2           -2.4231    -0.5954     0.0217 C        1    MOL      0.0000
      3 C3           -1.2418    -1.3206    -0.1341 C        1    MOL      0.0000
      4 C4            0.0016    -0.7045    -0.1008 C        1    MOL      0.0000
      5 C5            0.0357     0.6885     0.0969 C        1    MOL      0.0000
      6 C6           -1.1409     1.4225     0.2538 C        1    MOL      0.0000
      7 C7            1.2709     1.3287     0.1340 C        1    MOL      0.0000
      8 C8            2.4368     0.5953    -0.0223 C        1    MOL      0.0000
      9 C9            2.3080    -0.7682    -0.2117 C        1    MOL      0.0000
     10 N10           1.1257    -1.4258    -0.2536 N        1    MOL      0.0000

@<TRIPOS>BOND
     1     1     2 ar  
     2     2     3 ar  
     3     3     4 ar  
     4     4     5 ar  
     5     5     6 ar  
     6     5     7 ar  
     7     7     8 ar  
     8     8     9 ar  
     9     9    10 ar  
    10     6     1 ar  
    11    10     4 ar  

@<TRIPOS>SUBSTRUCTURE
1 MOL 1 TEMP 0 **** **** 0 ROOT
